I3C
  -OEChem-10252416393D

 20 20  0     0  0  0  0  0  0999 V2000
    3.0150    1.9370    0.0230 I   0  0  0  0  0  0  0  0  0  0  0  0
   -3.0140    1.9380   -0.0220 I   0  0  0  0  0  0  0  0  0  0  0  0
   -0.0000   -3.3060    0.0010 I   0  0  0  0  0  0  0  0  0  0  0  0
    3.0100   -1.5490    1.0670 O   0  0  0  0  0  0  0  0  0  0  0  0
    3.0750   -1.5830   -1.1510 O   0  0  0  0  0  0  0  0  0  0  0  0
   -2.4870   -1.2470   -0.0180 C   0  0  0  0  0  0  0  0  0  0  0  0
    0.0000    2.9770   -0.0010 N   0  0  0  0  0  0  0  0  0  0  0  0
    1.2070   -0.5120    0.0090 C   0  0  0  0  0  0  0  0  0  0  0  0
    1.2030    0.8860    0.0090 C   0  0  0  0  0  0  0  0  0  0  0  0
    0.0000    1.5780   -0.0010 C   0  0  0  0  0  0  0  0  0  0  0  0
   -1.2030    0.8860   -0.0090 C   0  0  0  0  0  0  0  0  0  0  0  0
   -1.2070   -0.5120   -0.0090 C   0  0  0  0  0  0  0  0  0  0  0  0
   -0.0000   -1.2110    0.0000 C   0  0  0  0  0  0  0  0  0  0  0  0
    2.4870   -1.2470    0.0140 C   0  0  0  0  0  0  0  0  0  0  0  0
   -3.0790   -1.5820    1.1450 O   0  0  0  0  0  0  0  0  0  0  0  0
   -3.0060   -1.5490   -1.0740 O   0  0  0  0  0  0  0  0  0  0  0  0
    3.9120   -2.0640   -1.0980 H   0  0  0  0  0  0  0  0  0  0  0  0
    0.8400    3.4610    0.0060 H   0  0  0  0  0  0  0  0  0  0  0  0
   -0.8400    3.4610   -0.0070 H   0  0  0  0  0  0  0  0  0  0  0  0
   -3.9160   -2.0630    1.0880 H   0  0  0  0  0  0  0  0  0  0  0  0
  1  9  1  0  0  0  0
  2 11  1  0  0  0  0
  3 13  1  0  0  0  0
  4 14  2  0  0  0  0
  5 14  1  0  0  0  0
  6 12  1  0  0  0  0
  6 15  1  0  0  0  0
  6 16  2  0  0  0  0
  7 10  1  0  0  0  0
  8  9  2  0  0  0  0
  8 13  1  0  0  0  0
  8 14  1  0  0  0  0
  9 10  1  0  0  0  0
 10 11  2  0  0  0  0
 11 12  1  0  0  0  0
 12 13  2  0  0  0  0
  5 17  1  0  0  0  0
  7 18  1  0  0  0  0
  7 19  1  0  0  0  0
 15 20  1  0  0  0  0
M  END
> <OPENEYE_ISO_SMILES>
c1(c(c(c(c(c1I)N)I)C(=O)O)I)C(=O)O

> <OPENEYE_INCHI>
InChI=1S/C8H4I3NO4/c9-3-1(7(13)14)4(10)6(12)5(11)2(3)8(15)16/h12H2,(H,13,14)(H,15,16)

> <OPENEYE_INCHIKEY>
JEZJSNULLBSYHV-UHFFFAOYSA-N

> <FORMULA>
C8H4I3NO4

$$$$
